1aid_ligand
  -I-interpret- 

 57 60  0  0  0  0  0  0  0  0999 V2000
   63.8400   38.1860    0.2080 N   0  3  0  0  0
   64.9660   37.9320    1.1280 C   0  0  0  0  0
   64.4870   37.5930    2.5450 C   0  0  0  0  0
   63.4750   38.6190    3.0900 C   0  0  0  0  0
   64.0940   39.9020    3.1010 O   0  0  0  0  0
   62.2980   38.6900    2.1020 C   0  0  0  0  0
   62.7860   39.0910    0.7070 C   0  0  0  0  0
   64.2990   38.7080   -1.0960 C   0  0  0  0  0
   65.1080   37.6800   -1.8950 C   0  0  0  0  0
   66.1910   38.4350   -2.6840 C   0  0  0  0  0
   66.4920   37.7880   -4.0510 C   0  0  0  0  0
   65.3550   37.8840   -4.9100 C   0  0  0  0  0
   64.9660   39.1330   -5.4240 C   0  0  0  0  0
   63.7880   39.2780   -6.1630 C   0  0  0  0  0
   62.9840   38.1650   -6.4090 C   0  0  0  0  0
   61.8000   38.3040   -7.0750 F   0  0  0  0  0
   63.3860   36.9110   -5.9410 C   0  0  0  0  0
   64.5670   36.7620   -5.2050 C   0  0  0  0  0
   63.1190   38.3480    4.4490 C   0  0  0  0  0
   64.1340   38.1280    5.4000 C   0  0  0  0  0
   63.8320   37.7680    6.7150 C   0  0  0  0  0
   62.5010   37.6390    7.1130 C   0  0  0  0  0
   62.1440   37.0960    8.7360 Cl  0  0  0  0  0
   61.4750   37.8990    6.1890 C   0  0  0  0  0
   61.7790   38.2660    4.8680 C   0  0  0  0  0
   66.9760   36.0570   -3.7650 S   0  0  0  0  0
   68.3990   36.0000   -4.8960 C   0  0  0  0  0
   68.8510   37.3620   -5.4300 C   0  0  0  0  0
   67.8790   38.7380   -4.7840 S   0  0  0  0  0
   63.4212   37.2605    0.1161 H   0  0  0  0  0
   65.5727   38.8360    1.1810 H   0  0  0  0  0
   65.5313   37.0813    0.7473 H   0  0  0  0  0
   65.3561   37.5974    3.2028 H   0  0  0  0  0
   63.9934   36.6219    2.5087 H   0  0  0  0  0
   64.3557   40.1374    2.2079 H   0  0  0  0  0
   61.5864   39.4366    2.4546 H   0  0  0  0  0
   61.8282   37.7082    2.0423 H   0  0  0  0  0
   61.9397   39.0387    0.0220 H   0  0  0  0  0
   63.2013   40.0970    0.7675 H   0  0  0  0  0
   64.9445   39.5651   -0.9043 H   0  0  0  0  0
   63.4168   38.9669   -1.6815 H   0  0  0  0  0
   64.4553   37.1363   -2.5780 H   0  0  0  0  0
   65.5684   36.9576   -1.2210 H   0  0  0  0  0
   67.1083   38.4156   -2.0955 H   0  0  0  0  0
   65.8285   39.4468   -2.8654 H   0  0  0  0  0
   65.5945   40.0050   -5.2431 H   0  0  0  0  0
   63.4990   40.2570   -6.5454 H   0  0  0  0  0
   62.7708   36.0363   -6.1523 H   0  0  0  0  0
   64.8742   35.7743   -4.8612 H   0  0  0  0  0
   65.1768   38.2410    5.1036 H   0  0  0  0  0
   64.6351   37.5880    7.4296 H   0  0  0  0  0
   60.4338   37.8151    6.5003 H   0  0  0  0  0
   60.9750   38.4877    4.1662 H   0  0  0  0  0
   68.0937   35.4078   -5.7586 H   0  0  0  0  0
   69.2355   35.5885   -4.3311 H   0  0  0  0  0
   68.7266   37.3497   -6.5128 H   0  0  0  0  0
   69.8844   37.5126   -5.1176 H   0  0  0  0  0
  1  2  1  0  0  0
  1  7  1  0  0  0
  1  8  1  0  0  0
  2  3  1  0  0  0
  3  4  1  0  0  0
  4  5  1  0  0  0
  4  6  1  0  0  0
  4 19  1  0  0  0
  6  7  1  0  0  0
  8  9  1  0  0  0
  9 10  1  0  0  0
 10 11  1  0  0  0
 11 12  1  0  0  0
 11 26  1  0  0  0
 11 29  1  0  0  0
 12 13  4  0  0  0
 12 18  4  0  0  0
 13 14  4  0  0  0
 14 15  4  0  0  0
 15 16  1  0  0  0
 15 17  4  0  0  0
 17 18  4  0  0  0
 19 20  4  0  0  0
 19 25  4  0  0  0
 20 21  4  0  0  0
 21 22  4  0  0  0
 22 23  1  0  0  0
 22 24  4  0  0  0
 24 25  4  0  0  0
 26 27  1  0  0  0
 27 28  1  0  0  0
 28 29  1  0  0  0
  1 30  1  0  0  0
  2 31  1  0  0  0
  2 32  1  0  0  0
  3 33  1  0  0  0
  3 34  1  0  0  0
  5 35  1  0  0  0
  6 36  1  0  0  0
  6 37  1  0  0  0
  7 38  1  0  0  0
  7 39  1  0  0  0
  8 40  1  0  0  0
  8 41  1  0  0  0
  9 42  1  0  0  0
  9 43  1  0  0  0
 10 44  1  0  0  0
 10 45  1  0  0  0
 13 46  1  0  0  0
 14 47  1  0  0  0
 17 48  1  0  0  0
 18 49  1  0  0  0
 20 50  1  0  0  0
 21 51  1  0  0  0
 24 52  1  0  0  0
 25 53  1  0  0  0
 27 54  1  0  0  0
 27 55  1  0  0  0
 28 56  1  0  0  0
 28 57  1  0  0  0
M  END
$$$$
