1a99_ligand
  -I-interpret- 

 20 19  0  0  0  0  0  0  0  0999 V2000
  185.9370    8.2100   65.8030 N   0  3  0  0  0
  185.0470    7.2500   65.0860 C   0  0  0  0  0
  184.0970    7.9880   64.1260 C   0  0  0  0  0
  183.4900    7.0810   63.0700 C   0  0  0  0  0
  182.5140    7.8100   62.1680 C   0  0  0  0  0
  182.2700    7.0450   60.9210 N   0  3  0  0  0
  186.5545    7.6953   66.4309 H   0  0  0  0  0
  186.4951    8.7269   65.1235 H   0  0  0  0  0
  185.3674    8.8615   66.3429 H   0  0  0  0  0
  184.4503    6.7108   65.8217 H   0  0  0  0  0
  185.6665    6.5655   64.5065 H   0  0  0  0  0
  184.6774    8.7530   63.6102 H   0  0  0  0  0
  183.2794    8.3967   64.7198 H   0  0  0  0  0
  182.9457    6.2873   63.5817 H   0  0  0  0  0
  184.3005    6.6995   62.4490 H   0  0  0  0  0
  182.9370    8.7799   61.9063 H   0  0  0  0  0
  181.5684    7.9266   62.6975 H   0  0  0  0  0
  181.6115    7.5562   60.3333 H   0  0  0  0  0
  183.1504    6.9230   60.4206 H   0  0  0  0  0
  181.8809    6.1315   61.1546 H   0  0  0  0  0
  1  2  1  0  0  0
  2  3  1  0  0  0
  3  4  1  0  0  0
  4  5  1  0  0  0
  5  6  1  0  0  0
  1  7  1  0  0  0
  1  8  1  0  0  0
  1  9  1  0  0  0
  2 10  1  0  0  0
  2 11  1  0  0  0
  3 12  1  0  0  0
  3 13  1  0  0  0
  4 14  1  0  0  0
  4 15  1  0  0  0
  5 16  1  0  0  0
  5 17  1  0  0  0
  6 18  1  0  0  0
  6 19  1  0  0  0
  6 20  1  0  0  0
M  END
$$$$
