1ai7_ligand
  -I-interpret- 

 13 13  0  0  0  0  0  0  0  0999 V2000
   10.0120   35.4330   32.6350 C   0  0  0  0  0
   10.5500   36.4840   31.8960 C   0  0  0  0  0
   11.6400   37.0940   32.4870 C   0  0  0  0  0
   12.1260   36.7140   33.7230 C   0  0  0  0  0
   11.5350   35.6690   34.4060 C   0  0  0  0  0
   10.4420   35.0130   33.9000 C   0  0  0  0  0
    8.9550   34.7450   32.0780 O   0  0  0  0  0
   10.1458   36.7984   30.9338 H   0  0  0  0  0
   12.1359   37.9072   31.9570 H   0  0  0  0  0
   12.9759   37.2388   34.1593 H   0  0  0  0  0
   11.9458   35.3593   35.3670 H   0  0  0  0  0
    9.9399   34.2154   34.4476 H   0  0  0  0  0
    8.7495   35.1182   31.2177 H   0  0  0  0  0
  1  7  1  0  0  0
  1  6  4  0  0  0
  1  2  4  0  0  0
  2  3  4  0  0  0
  3  4  4  0  0  0
  4  5  4  0  0  0
  5  6  4  0  0  0
  2  8  1  0  0  0
  3  9  1  0  0  0
  4 10  1  0  0  0
  5 11  1  0  0  0
  6 12  1  0  0  0
  7 13  1  0  0  0
M  END
$$$$
