1afk_ligand
  -I-interpret- 

 47 49  0  0  0  0  0  0  0  0999 V2000
   37.0960   -2.6270   23.1460 P   0  0  0  0  0
   35.6450   -2.8540   22.9910 O   0  0  0  0  0
   37.4700   -1.7080   24.2740 O   0  0  0  0  0
   37.7900   -2.3100   21.8760 O   0  0  0  0  0
   38.8980   -5.1970   23.0660 P   0  0  0  0  0
   39.1010   -6.1020   24.2360 O   0  0  0  0  0
   40.0900   -4.5480   22.4560 O   0  0  0  0  0
   37.7130   -4.0790   23.6160 O   0  0  0  0  0
   38.1350   -6.0710   21.9240 O   0  0  0  0  0
   37.6540   -5.4600   20.7430 C   0  0  0  0  0
   37.4550   -6.5780   19.7620 C   0  0  0  0  0
   36.8070   -5.9900   18.6290 O   0  0  0  0  0
   38.7890   -7.1850   19.2480 C   0  0  0  0  0
   38.6030   -8.6050   18.9820 O   0  0  0  0  0
   39.2670   -9.7840   20.0240 P   0  0  0  0  0
   38.0320  -10.3450   20.6260 O   0  0  0  0  0
   39.9760  -10.6860   19.0810 O   0  0  0  0  0
   40.1960   -9.0560   20.9410 O   0  0  0  0  0
   38.9870   -6.4000   17.9570 C   0  0  0  0  0
   39.8810   -7.0970   17.0610 O   0  0  0  0  0
   37.5180   -6.4600   17.4940 C   0  0  0  0  0
   37.1230   -5.5360   16.4070 N   0  0  0  0  0
   36.2620   -5.9000   15.4020 C   0  0  0  0  0
   36.0380   -4.9630   14.5290 N   0  0  0  0  0
   36.8190   -3.8500   14.9770 C   0  0  0  0  0
   36.9920   -2.4990   14.4510 C   0  0  0  0  0
   36.4470   -2.1010   13.2850 N   0  0  0  0  0
   37.7970   -1.6570   15.1510 N   0  0  0  0  0
   38.3900   -2.1300   16.2570 C   0  0  0  0  0
   38.3300   -3.3480   16.8480 N   0  0  0  0  0
   37.4970   -4.1920   16.1420 C   0  0  0  0  0
   38.4249   -1.6142   24.3057 H   0  0  0  0  0
   38.7247   -2.1750   22.0485 H   0  0  0  0  0
   38.2524   -6.4469   24.5234 H   0  0  0  0  0
   38.3566   -4.7178   20.3639 H   0  0  0  0  0
   36.7252   -4.9191   20.9242 H   0  0  0  0  0
   36.8937   -7.3747   20.2502 H   0  0  0  0  0
   39.6320   -7.1172   19.9357 H   0  0  0  0  0
   40.7577  -10.2431   18.7428 H   0  0  0  0  0
   40.9536   -8.7406   20.4428 H   0  0  0  0  0
   39.4317   -5.4073   18.0272 H   0  0  0  0  0
   40.7797   -7.0306   17.3919 H   0  0  0  0  0
   37.3302   -7.4677   17.1233 H   0  0  0  0  0
   35.8060   -6.8881   15.3411 H   0  0  0  0  0
   35.8890   -2.7532   12.7339 H   0  0  0  0  0
   36.5924   -1.1475   12.9533 H   0  0  0  0  0
   39.0302   -1.4112   16.7684 H   0  0  0  0  0
  1  8  1  0  0  0
  1  4  1  0  0  0
  1  3  1  0  0  0
  1  2  2  0  0  0
  8  5  1  0  0  0
  5  9  1  0  0  0
  5  7  2  0  0  0
  5  6  1  0  0  0
  9 10  1  0  0  0
 10 11  1  0  0  0
 11 13  1  0  0  0
 11 12  1  0  0  0
 12 21  1  0  0  0
 21 22  1  0  0  0
 21 19  1  0  0  0
 19 20  1  0  0  0
 19 13  1  0  0  0
 13 14  1  0  0  0
 14 15  1  0  0  0
 15 18  1  0  0  0
 15 17  1  0  0  0
 15 16  2  0  0  0
 22 31  4  0  0  0
 22 23  4  0  0  0
 23 24  4  0  0  0
 24 25  4  0  0  0
 25 31  4  0  0  0
 25 26  4  0  0  0
 26 28  4  0  0  0
 26 27  1  0  0  0
 28 29  4  0  0  0
 29 30  4  0  0  0
 30 31  4  0  0  0
  3 32  1  0  0  0
  4 33  1  0  0  0
  6 34  1  0  0  0
 10 35  1  0  0  0
 10 36  1  0  0  0
 11 37  1  0  0  0
 13 38  1  0  0  0
 17 39  1  0  0  0
 18 40  1  0  0  0
 19 41  1  0  0  0
 20 42  1  0  0  0
 21 43  1  0  0  0
 23 44  1  0  0  0
 27 45  1  0  0  0
 27 46  1  0  0  0
 29 47  1  0  0  0
M  END
$$$$
