1a28_ligand
  -I-interpret- 

 53 56  0  0  0  0  0  0  0  0999 V2000
   21.2060    9.9350   63.0810 C   0  0  0  0  0
   21.2410    9.4460   64.5510 C   0  0  0  0  0
   22.0000    8.1250   64.6300 C   0  0  0  0  0
   21.7010    7.3010   65.5120 O   0  0  0  0  0
   23.1180    7.8720   63.7340 C   0  0  0  0  0
   23.4530    8.7270   62.7850 C   0  0  0  0  0
   24.6970    8.4430   61.9510 C   0  0  0  0  0
   24.4490    8.6370   60.4430 C   0  0  0  0  0
   23.7890    9.9970   60.0980 C   0  0  0  0  0
   22.4340   10.0950   60.8720 C   0  0  0  0  0
   22.6140   10.0230   62.4340 C   0  0  0  0  0
   21.6330   11.3540   60.4500 C   0  0  0  0  0
   21.4320   11.4340   58.9110 C   0  0  0  0  0
   22.7860   11.4040   58.1690 C   0  0  0  0  0
   23.4830   10.0600   58.5980 C   0  0  0  0  0
   24.6740    9.9180   57.6180 C   0  0  0  0  0
   24.0720   10.4500   56.2670 C   0  0  0  0  0
   22.7140   11.1490   56.6270 C   0  0  0  0  0
   23.6590   12.6770   58.4540 C   0  0  0  0  0
   23.4270   11.2460   63.0070 C   0  0  0  0  0
   22.3750   12.3880   55.7810 C   0  0  0  0  0
   23.2120   12.8760   55.0520 O   0  0  0  0  0
   21.0090   12.9760   55.8570 C   0  0  0  0  0
   20.7762   10.9367   63.0756 H   0  0  0  0  0
   20.6223    9.2155   62.5067 H   0  0  0  0  0
   20.2220    9.3014   64.9100 H   0  0  0  0  0
   21.7423   10.1904   65.1696 H   0  0  0  0  0
   23.6936    6.9535   63.8489 H   0  0  0  0  0
   24.9834    7.4042   62.1150 H   0  0  0  0  0
   25.4756    9.1415   62.2576 H   0  0  0  0  0
   23.7690    7.8497   60.1177 H   0  0  0  0  0
   25.4175    8.6056   59.9438 H   0  0  0  0  0
   24.4620   10.8093   60.3726 H   0  0  0  0  0
   21.8538    9.2162   60.5906 H   0  0  0  0  0
   22.1940   12.2339   60.7647 H   0  0  0  0  0
   20.6499   11.3029   60.9180 H   0  0  0  0  0
   20.9261   12.3700   58.6743 H   0  0  0  0  0
   20.8413   10.5753   58.5921 H   0  0  0  0  0
   22.8432    9.1821   58.5084 H   0  0  0  0  0
   25.0464    8.8962   57.5453 H   0  0  0  0  0
   25.5572   10.4710   57.9379 H   0  0  0  0  0
   23.9151    9.6336   55.5621 H   0  0  0  0  0
   24.7547   11.1498   55.7850 H   0  0  0  0  0
   21.8685   10.5090   56.3748 H   0  0  0  0  0
   23.1187   13.5665   58.1299 H   0  0  0  0  0
   23.8637   12.7438   59.5225 H   0  0  0  0  0
   24.5987   12.6015   57.9068 H   0  0  0  0  0
   24.4189   11.2648   62.5555 H   0  0  0  0  0
   22.9018   12.1718   62.7721 H   0  0  0  0  0
   23.5204   11.1440   64.0882 H   0  0  0  0  0
   21.0782   14.0100   56.1948 H   0  0  0  0  0
   20.5460   12.9448   54.8707 H   0  0  0  0  0
   20.4064   12.4020   56.5609 H   0  0  0  0  0
  1  2  1  0  0  0
  1 11  1  0  0  0
  2  3  1  0  0  0
  3  4  2  0  0  0
  3  5  1  0  0  0
  5  6  2  0  0  0
  6  7  1  0  0  0
  6 11  1  0  0  0
  7  8  1  0  0  0
  8  9  1  0  0  0
  9 10  1  0  0  0
  9 15  1  0  0  0
 10 11  1  0  0  0
 10 12  1  0  0  0
 11 20  1  0  0  0
 12 13  1  0  0  0
 13 14  1  0  0  0
 14 15  1  0  0  0
 14 18  1  0  0  0
 14 19  1  0  0  0
 15 16  1  0  0  0
 16 17  1  0  0  0
 17 18  1  0  0  0
 18 21  1  0  0  0
 21 22  2  0  0  0
 21 23  1  0  0  0
  1 24  1  0  0  0
  1 25  1  0  0  0
  2 26  1  0  0  0
  2 27  1  0  0  0
  5 28  1  0  0  0
  7 29  1  0  0  0
  7 30  1  0  0  0
  8 31  1  0  0  0
  8 32  1  0  0  0
  9 33  1  0  0  0
 10 34  1  0  0  0
 12 35  1  0  0  0
 12 36  1  0  0  0
 13 37  1  0  0  0
 13 38  1  0  0  0
 15 39  1  0  0  0
 16 40  1  0  0  0
 16 41  1  0  0  0
 17 42  1  0  0  0
 17 43  1  0  0  0
 18 44  1  0  0  0
 19 45  1  0  0  0
 19 46  1  0  0  0
 19 47  1  0  0  0
 20 48  1  0  0  0
 20 49  1  0  0  0
 20 50  1  0  0  0
 23 51  1  0  0  0
 23 52  1  0  0  0
 23 53  1  0  0  0
M  END
$$$$
