1aj7_ligand
  -I-interpret- 

 34 34  0  0  0  0  0  0  0  0999 V2000
   18.2960    6.1420   32.7200 C   0  0  0  0  0
   18.7590    5.4540   31.5480 N   0  0  0  0  0
   19.5520    6.1800   30.6400 O   0  0  0  0  0
   18.3840    4.1060   31.4170 O   0  0  0  0  0
   18.6450    7.5080   32.9320 C   0  0  0  0  0
   18.1990    8.1850   34.0870 C   0  0  0  0  0
   17.4080    7.5010   35.0370 C   0  0  0  0  0
   17.0520    6.1460   34.8330 C   0  0  0  0  0
   17.4930    5.4600   33.6840 C   0  0  0  0  0
   17.0220    8.1540   36.2280 O   0  0  0  0  0
   17.8810    7.9590   37.4820 P   0  0  0  0  0
   19.0780    8.7090   37.2570 O   0  0  0  0  0
   18.3010    6.5960   37.5090 O   0  0  0  0  0
   17.0790    8.4080   39.0270 C   0  0  0  0  0
   17.9070    7.8650   40.1910 C   0  0  0  0  0
   17.2700    8.0000   41.5820 C   0  0  0  0  0
   16.7210    6.6450   42.0530 C   0  0  0  0  0
   17.3220    6.0920   43.3420 C   0  0  0  0  0
   18.0430    5.1510   43.4370 O   0  0  0  0  0
   16.9010    6.8460   44.3750 O   0  0  0  0  0
   19.2588    8.0315   32.1990 H   0  0  0  0  0
   18.4635    9.2305   34.2454 H   0  0  0  0  0
   16.4338    5.6310   35.5683 H   0  0  0  0  0
   17.2229    4.4150   33.5319 H   0  0  0  0  0
   18.8669    9.6450   37.2271 H   0  0  0  0  0
   16.0759    7.9826   39.0585 H   0  0  0  0  0
   17.0052    9.4929   39.1020 H   0  0  0  0  0
   18.8266    8.4497   40.2147 H   0  0  0  0  0
   18.0301    6.7971   40.0103 H   0  0  0  0  0
   16.4501    8.7163   41.5291 H   0  0  0  0  0
   18.0274    8.3410   42.2878 H   0  0  0  0  0
   16.9634    5.9272   41.2694 H   0  0  0  0  0
   15.6597    6.7963   42.2501 H   0  0  0  0  0
   16.3295    7.5445   44.0478 H   0  0  0  0  0
  1  9  4  0  0  0
  1  5  4  0  0  0
  1  2  1  0  0  0
  2  4  2  0  0  0
  2  3  2  0  0  0
  5  6  4  0  0  0
  6  7  4  0  0  0
  7 10  1  0  0  0
  7  8  4  0  0  0
  8  9  4  0  0  0
 10 11  1  0  0  0
 11 14  1  0  0  0
 11 13  2  0  0  0
 11 12  1  0  0  0
 14 15  1  0  0  0
 15 16  1  0  0  0
 16 17  1  0  0  0
 17 18  1  0  0  0
 18 20  1  0  0  0
 18 19  2  0  0  0
  5 21  1  0  0  0
  6 22  1  0  0  0
  8 23  1  0  0  0
  9 24  1  0  0  0
 12 25  1  0  0  0
 14 26  1  0  0  0
 14 27  1  0  0  0
 15 28  1  0  0  0
 15 29  1  0  0  0
 16 30  1  0  0  0
 16 31  1  0  0  0
 17 32  1  0  0  0
 17 33  1  0  0  0
 20 34  1  0  0  0
M  END
$$$$
