1afl_ligand
  -I-interpret- 

 47 49  0  0  0  0  0  0  0  0999 V2000
   37.2410   -2.7860   23.0660 P   0  0  0  0  0
   37.8370   -2.2840   24.2990 O   0  0  0  0  0
   35.7750   -2.8980   23.1260 O   0  0  0  0  0
   37.8130   -2.1830   21.8570 O   0  0  0  0  0
   38.9650   -5.3250   22.7600 P   0  0  0  0  0
   38.3980   -6.7290   22.7470 O   0  0  0  0  0
   40.1970   -4.9690   23.6130 O   0  0  0  0  0
   37.5640   -4.3250   22.9850 O   0  0  0  0  0
   39.2910   -5.0010   21.1570 O   0  0  0  0  0
   38.0080   -5.0480   20.5090 C   0  0  0  0  0
   37.7680   -6.3040   19.8480 C   0  0  0  0  0
   36.8740   -5.7220   18.9300 O   0  0  0  0  0
   38.9460   -7.0410   19.0570 C   0  0  0  0  0
   39.5370   -8.2850   19.6940 O   0  0  0  0  0
   38.1080   -7.4720   17.8680 C   0  0  0  0  0
   37.4760   -8.6980   18.1800 O   0  0  0  0  0
   36.7040   -9.4600   16.9420 P   0  0  0  0  0
   35.5790   -8.5940   16.4960 O   0  0  0  0  0
   37.7790   -9.6880   15.9180 O   0  0  0  0  0
   36.3620  -10.5970   17.8500 O   0  0  0  0  0
   36.9470   -6.4800   17.7560 C   0  0  0  0  0
   36.9050   -5.6480   16.4670 N   0  0  0  0  0
   36.1340   -6.0340   15.3550 C   0  0  0  0  0
   36.0170   -5.1590   14.4050 N   0  0  0  0  0
   36.7960   -4.0540   14.9090 C   0  0  0  0  0
   37.0430   -2.7400   14.3850 C   0  0  0  0  0
   36.6280   -2.3860   13.1430 N   0  0  0  0  0
   37.7940   -1.8900   15.1790 N   0  0  0  0  0
   38.2670   -2.3180   16.3460 C   0  0  0  0  0
   38.1250   -3.4940   16.9330 N   0  0  0  0  0
   37.3540   -4.3430   16.1620 C   0  0  0  0  0
   35.4462   -3.2321   22.2882 H   0  0  0  0  0
   37.3822   -2.5517   21.0823 H   0  0  0  0  0
   40.4093   -4.0403   23.4945 H   0  0  0  0  0
   37.9841   -4.2617   19.7545 H   0  0  0  0  0
   37.2413   -4.9188   21.2729 H   0  0  0  0  0
   37.5039   -7.1163   20.5251 H   0  0  0  0  0
   39.8267   -6.4116   18.9290 H   0  0  0  0  0
   40.2300   -8.6341   19.1288 H   0  0  0  0  0
   38.7327   -7.5342   16.9769 H   0  0  0  0  0
   38.4592  -10.2540   16.2903 H   0  0  0  0  0
   37.1613  -11.0814   18.0694 H   0  0  0  0  0
   36.0335   -7.0667   17.6588 H   0  0  0  0  0
   35.6612   -7.0143   15.2954 H   0  0  0  0  0
   36.1294   -3.0589   12.5608 H   0  0  0  0  0
   36.8145   -1.4469   12.7913 H   0  0  0  0  0
   38.8599   -1.5910   16.9010 H   0  0  0  0  0
  1  8  1  0  0  0
  1  4  1  0  0  0
  1  3  1  0  0  0
  1  2  2  0  0  0
  8  5  1  0  0  0
  5  9  1  0  0  0
  5  7  1  0  0  0
  5  6  2  0  0  0
  9 10  1  0  0  0
 10 11  1  0  0  0
 11 13  1  0  0  0
 11 12  1  0  0  0
 12 21  1  0  0  0
 21 22  1  0  0  0
 21 15  1  0  0  0
 15 16  1  0  0  0
 15 13  1  0  0  0
 13 14  1  0  0  0
 16 17  1  0  0  0
 17 20  1  0  0  0
 17 19  1  0  0  0
 17 18  2  0  0  0
 22 31  4  0  0  0
 22 23  4  0  0  0
 23 24  4  0  0  0
 24 25  4  0  0  0
 25 31  4  0  0  0
 25 26  4  0  0  0
 26 28  4  0  0  0
 26 27  1  0  0  0
 28 29  4  0  0  0
 29 30  4  0  0  0
 30 31  4  0  0  0
  3 32  1  0  0  0
  4 33  1  0  0  0
  7 34  1  0  0  0
 10 35  1  0  0  0
 10 36  1  0  0  0
 11 37  1  0  0  0
 13 38  1  0  0  0
 14 39  1  0  0  0
 15 40  1  0  0  0
 19 41  1  0  0  0
 20 42  1  0  0  0
 21 43  1  0  0  0
 23 44  1  0  0  0
 27 45  1  0  0  0
 27 46  1  0  0  0
 29 47  1  0  0  0
M  END
$$$$
