1ai4_ligand
  -I-interpret- 

 20 20  0  0  0  0  0  0  0  0999 V2000
   13.8060   37.7840   36.1770 C   0  0  0  0  0
   13.5920   36.3210   35.7700 C   0  0  0  0  0
   12.4160   35.9970   34.8980 C   0  0  0  0  0
   12.3640   36.6850   33.6940 C   0  0  0  0  0
   11.3370   36.4780   32.8090 C   0  0  0  0  0
   11.0820   37.0600   31.5790 O   0  0  0  0  0
   10.3460   35.5510   33.1180 C   0  0  0  0  0
    9.4350   35.4550   32.0850 O   0  0  0  0  0
   10.3720   34.8500   34.3070 C   0  0  0  0  0
   11.4240   35.0560   35.2000 C   0  0  0  0  0
   14.4450   38.0110   37.1970 O   0  0  0  0  0
   13.2690   38.7890   35.7080 O   0  0  0  0  0
   13.4168   35.7844   36.7024 H   0  0  0  0  0
   14.4700   36.0533   35.1822 H   0  0  0  0  0
   13.1498   37.3994   33.4484 H   0  0  0  0  0
   10.2750   36.6909   31.2128 H   0  0  0  0  0
    8.7595   34.8125   32.3142 H   0  0  0  0  0
    9.5782   34.1423   34.5459 H   0  0  0  0  0
   11.4734   34.4871   36.1284 H   0  0  0  0  0
   12.7850   38.5508   34.9139 H   0  0  0  0  0
  1 12  1  0  0  0
  1 11  2  0  0  0
  1  2  1  0  0  0
  2  3  1  0  0  0
  3 10  4  0  0  0
  3  4  4  0  0  0
  4  5  4  0  0  0
  5  7  4  0  0  0
  5  6  1  0  0  0
  7  9  4  0  0  0
  7  8  1  0  0  0
  9 10  4  0  0  0
  2 13  1  0  0  0
  2 14  1  0  0  0
  4 15  1  0  0  0
  6 16  1  0  0  0
  8 17  1  0  0  0
  9 18  1  0  0  0
 10 19  1  0  0  0
 12 20  1  0  0  0
M  END
$$$$
