1adl_ligand
  -I-interpret- 

 54 53  0  0  0  0  0  0  0  0999 V2000
  -45.2660   66.7790   -6.1190 C   0  0  0  0  0
  -45.8140   68.0270   -5.4800 C   0  0  0  0  0
  -45.4540   69.2900   -6.2320 C   0  0  0  0  0
  -46.3450   70.4390   -5.7980 C   0  0  0  0  0
  -46.0310   71.6830   -6.4670 C   0  0  0  0  0
  -47.0010   72.3420   -7.2130 C   0  0  0  0  0
  -48.3430   71.8000   -7.3350 C   0  0  0  0  0
  -49.3750   72.7980   -7.1340 C   0  0  0  0  0
  -50.5050   72.8260   -7.9440 C   0  0  0  0  0
  -50.6890   71.8590   -9.0160 C   0  0  0  0  0
  -51.8680   72.1300   -9.8220 C   0  0  0  0  0
  -52.1030   71.4520  -11.0180 C   0  0  0  0  0
  -51.1800   70.4440  -11.5090 C   0  0  0  0  0
  -51.8110   69.4860  -12.4070 C   0  0  0  0  0
  -51.2460   68.2290  -12.6230 C   0  0  0  0  0
  -50.0130   67.8490  -11.9600 C   0  0  0  0  0
  -50.2370   67.2300  -10.5850 C   0  0  0  0  0
  -48.9160   66.9360   -9.8970 C   0  0  0  0  0
  -48.1220   68.2090   -9.6480 C   0  0  0  0  0
  -46.7200   67.8860   -9.1950 C   0  0  0  0  0
  -44.0870   66.7640   -6.5490 O   0  0  0  0  0
  -46.0240   65.7870   -6.2080 O   0  0  0  0  0
  -45.3832   68.1031   -4.4816 H   0  0  0  0  0
  -46.9009   67.9448   -5.4740 H   0  0  0  0  0
  -45.5923   69.1182   -7.2995 H   0  0  0  0  0
  -44.4164   69.5461   -6.0179 H   0  0  0  0  0
  -46.1945   70.5900   -4.7291 H   0  0  0  0  0
  -47.3721   70.1762   -6.0512 H   0  0  0  0  0
  -45.0294   72.1051   -6.3856 H   0  0  0  0  0
  -46.7514   73.2778   -7.7130 H   0  0  0  0  0
  -48.4646   71.0361   -6.5670 H   0  0  0  0  0
  -48.4526   71.4067   -8.3457 H   0  0  0  0  0
  -49.2640   73.5351   -6.3387 H   0  0  0  0  0
  -51.2671   73.5863   -7.7729 H   0  0  0  0  0
  -50.8138   70.8762   -8.5615 H   0  0  0  0  0
  -49.8180   71.9144   -9.6690 H   0  0  0  0  0
  -52.5840   72.8793   -9.4844 H   0  0  0  0  0
  -52.9977   71.6834  -11.5960 H   0  0  0  0  0
  -50.8003   69.8932  -10.6485 H   0  0  0  0  0
  -50.3948   70.9550  -12.0662 H   0  0  0  0  0
  -52.7363   69.7548  -12.9166 H   0  0  0  0  0
  -51.7357   67.5256  -13.2964 H   0  0  0  0  0
  -49.4195   68.7529  -11.8227 H   0  0  0  0  0
  -49.5199   67.1022  -12.5822 H   0  0  0  0  0
  -50.7823   66.2943  -10.7081 H   0  0  0  0  0
  -50.8003   67.9342   -9.9727 H   0  0  0  0  0
  -48.3283   66.2831  -10.5424 H   0  0  0  0  0
  -49.1243   66.4654   -8.9361 H   0  0  0  0  0
  -48.6190   68.7863   -8.8684 H   0  0  0  0  0
  -48.0691   68.7775  -10.5765 H   0  0  0  0  0
  -46.7619   67.3107   -8.2701 H   0  0  0  0  0
  -46.2162   67.3019   -9.9652 H   0  0  0  0  0
  -46.1724   68.8127   -9.0235 H   0  0  0  0  0
  -43.6771   67.6166   -6.3855 H   0  0  0  0  0
  1 22  2  0  0  0
  1 21  1  0  0  0
  1  2  1  0  0  0
  2  3  1  0  0  0
  3  4  1  0  0  0
  4  5  1  0  0  0
  5  6  2  0  0  0
  6  7  1  0  0  0
  7  8  1  0  0  0
  8  9  2  0  0  0
  9 10  1  0  0  0
 10 11  1  0  0  0
 11 12  2  0  0  0
 12 13  1  0  0  0
 13 14  1  0  0  0
 14 15  2  0  0  0
 15 16  1  0  0  0
 16 17  1  0  0  0
 17 18  1  0  0  0
 18 19  1  0  0  0
 19 20  1  0  0  0
  2 23  1  0  0  0
  2 24  1  0  0  0
  3 25  1  0  0  0
  3 26  1  0  0  0
  4 27  1  0  0  0
  4 28  1  0  0  0
  5 29  1  0  0  0
  6 30  1  0  0  0
  7 31  1  0  0  0
  7 32  1  0  0  0
  8 33  1  0  0  0
  9 34  1  0  0  0
 10 35  1  0  0  0
 10 36  1  0  0  0
 11 37  1  0  0  0
 12 38  1  0  0  0
 13 39  1  0  0  0
 13 40  1  0  0  0
 14 41  1  0  0  0
 15 42  1  0  0  0
 16 43  1  0  0  0
 16 44  1  0  0  0
 17 45  1  0  0  0
 17 46  1  0  0  0
 18 47  1  0  0  0
 18 48  1  0  0  0
 19 49  1  0  0  0
 19 50  1  0  0  0
 20 51  1  0  0  0
 20 52  1  0  0  0
 20 53  1  0  0  0
 21 54  1  0  0  0
M  END
$$$$
