1a9m_ligand
  -I-interpret- 

 94 94  0  0  0  0  0  0  0  0999 V2000
   45.5100   23.0020   66.2580 C   0  0  0  0  0
   44.7100   22.2760   65.6330 C   0  0  0  0  0
   44.3590   19.9760   64.7470 C   0  0  0  0  0
   45.3320   19.2840   63.8240 C   0  0  0  0  0
   45.9590   19.9850   62.6470 C   0  0  0  0  0
   45.1630   21.1900   62.1830 C   0  0  0  0  0
   45.7320   21.7660   60.9070 C   0  0  0  0  0
   47.2140   22.1150   61.0830 C   0  0  0  0  0
   48.0570   20.9850   61.7110 C   0  0  0  0  0
   47.3850   20.4040   62.9280 C   0  0  0  0  0
   43.6380   18.8840   65.6080 C   0  0  0  0  0
   42.7960   19.5050   66.7060 C   0  0  0  0  0
   41.4600   18.8010   66.8660 C   0  0  0  0  0
   40.5360   19.6130   67.8360 C   0  0  0  0  0
   39.9940   20.8780   67.1990 C   0  0  0  0  0
   39.4250   18.7550   68.3890 C   0  0  0  0  0
   40.8390   18.5800   65.4800 C   0  0  0  0  0
   39.3800   17.1150   64.2650 C   0  0  0  0  0
   39.9620   16.7890   62.8680 C   0  0  0  0  0
   40.0380   15.3260   62.4810 C   0  0  0  0  0
   38.7290   14.7960   61.9710 C   0  0  0  0  0
   38.3970   16.0710   64.7570 C   0  0  0  0  0
   36.0780   15.3880   64.7620 C   0  0  0  0  0
   35.1670   15.2450   63.5670 C   0  0  0  0  0
   35.3380   16.0590   65.9140 C   0  0  0  0  0
   35.9920   15.8580   67.2590 C   0  0  0  0  0
   35.9500   17.1280   68.0770 C   0  0  0  0  0
   34.3030   17.2140   69.9120 C   0  0  0  0  0
   45.0620   20.9790   65.5660 N   0  0  0  0  0
   40.4350   17.3410   65.2340 N   0  0  0  0  0
   38.1560   15.4730   60.9940 N   0  0  0  0  0
   37.1640   16.2210   64.3060 N   0  0  0  0  0
   34.6060   14.0510   63.5010 N   0  0  0  0  0
   35.5030   16.8760   69.4420 N   0  0  0  0  0
   33.5530   18.1050   69.2620 N   0  0  0  0  0
   33.8540   16.6660   71.0360 N   0  0  0  0  0
   43.6700   22.7450   65.1250 O   0  0  0  0  0
   44.5850   18.0080   66.1960 O   0  0  0  0  0
   40.7610   19.4940   64.6310 O   0  0  0  0  0
   38.2180   13.8060   62.4730 O   0  0  0  0  0
   38.7320   15.1970   65.5570 O   0  0  0  0  0
   34.9930   16.1380   62.7260 O   0  0  0  0  0
   45.8837   23.7828   65.5956 H   0  0  0  0  0
   44.9989   23.4572   67.1063 H   0  0  0  0  0
   46.3436   22.3977   66.6159 H   0  0  0  0  0
   43.6019   20.5195   64.1818 H   0  0  0  0  0
   44.7318   18.4996   63.3630 H   0  0  0  0  0
   46.1814   19.0615   64.4699 H   0  0  0  0  0
   45.9568   19.2484   61.8436 H   0  0  0  0  0
   45.2072   21.9545   62.9587 H   0  0  0  0  0
   44.1364   20.8759   61.9943 H   0  0  0  0  0
   45.1839   22.6740   60.6554 H   0  0  0  0  0
   45.6366   21.0253   60.1131 H   0  0  0  0  0
   47.2662   22.9695   61.7577 H   0  0  0  0  0
   47.6204   22.3068   60.0899 H   0  0  0  0  0
   49.0188   21.3995   62.0131 H   0  0  0  0  0
   48.1767   20.1927   60.9720 H   0  0  0  0  0
   47.9442   19.5202   63.2351 H   0  0  0  0  0
   47.3672   21.1694   63.7038 H   0  0  0  0  0
   42.9847   18.3269   64.9365 H   0  0  0  0  0
   42.6037   20.5447   66.4411 H   0  0  0  0  0
   43.3421   19.4169   67.6452 H   0  0  0  0  0
   41.5943   17.8200   67.3217 H   0  0  0  0  0
   41.1618   19.9270   68.6714 H   0  0  0  0  0
   40.8244   21.5215   66.9085 H   0  0  0  0  0
   39.4089   20.6173   66.3171 H   0  0  0  0  0
   39.3605   21.4013   67.9152 H   0  0  0  0  0
   38.8164   18.3770   67.5675 H   0  0  0  0  0
   39.8540   17.9181   68.9401 H   0  0  0  0  0
   38.8049   19.3522   69.0575 H   0  0  0  0  0
   38.8140   18.0397   64.1526 H   0  0  0  0  0
   40.9912   17.1476   62.8825 H   0  0  0  0  0
   39.2879   17.2533   62.1482 H   0  0  0  0  0
   40.3070   14.7568   63.3708 H   0  0  0  0  0
   40.7740   15.2275   61.6830 H   0  0  0  0  0
   36.4291   14.4240   65.1300 H   0  0  0  0  0
   34.3451   15.6124   65.9659 H   0  0  0  0  0
   35.3295   17.1305   65.7141 H   0  0  0  0  0
   37.0335   15.5770   67.1028 H   0  0  0  0  0
   35.4532   15.0778   67.7967 H   0  0  0  0  0
   35.2472   17.8160   67.6071 H   0  0  0  0  0
   36.9566   17.5443   68.1167 H   0  0  0  0  0
   45.8643   20.6715   66.1156 H   0  0  0  0  0
   40.8626   16.5540   65.7220 H   0  0  0  0  0
   37.2513   15.1749   60.6293 H   0  0  0  0  0
   38.6178   16.2944   60.6035 H   0  0  0  0  0
   36.9745   16.9471   63.6151 H   0  0  0  0  0
   33.9876   13.8203   62.7233 H   0  0  0  0  0
   34.7911   13.3596   64.2277 H   0  0  0  0  0
   36.1508   16.4110   70.0780 H   0  0  0  0  0
   32.6369   18.3643   69.6280 H   0  0  0  0  0
   33.8955   18.5271   68.3989 H   0  0  0  0  0
   34.4277   15.9879   71.5374 H   0  0  0  0  0
   45.1224   17.6105   65.5070 H   0  0  0  0  0
  1  2  1  0  0  0
  2 37  2  0  0  0
  2 29  1  0  0  0
 29  3  1  0  0  0
  3 11  1  0  0  0
  3  4  1  0  0  0
  4  5  1  0  0  0
  5 10  1  0  0  0
  5  6  1  0  0  0
  6  7  1  0  0  0
  7  8  1  0  0  0
  8  9  1  0  0  0
  9 10  1  0  0  0
 11 38  1  0  0  0
 11 12  1  0  0  0
 12 13  1  0  0  0
 13 17  1  0  0  0
 13 14  1  0  0  0
 14 16  1  0  0  0
 14 15  1  0  0  0
 17 39  2  0  0  0
 17 30  1  0  0  0
 30 18  1  0  0  0
 18 22  1  0  0  0
 18 19  1  0  0  0
 19 20  1  0  0  0
 20 21  1  0  0  0
 21 40  2  0  0  0
 21 31  1  0  0  0
 22 41  2  0  0  0
 22 32  1  0  0  0
 32 23  1  0  0  0
 23 25  1  0  0  0
 23 24  1  0  0  0
 24 42  2  0  0  0
 24 33  1  0  0  0
 25 26  1  0  0  0
 26 27  1  0  0  0
 27 34  1  0  0  0
 34 28  1  0  0  0
 28 35  1  0  0  0
 28 36  2  0  0  0
  1 43  1  0  0  0
  1 44  1  0  0  0
  1 45  1  0  0  0
  3 46  1  0  0  0
  4 47  1  0  0  0
  4 48  1  0  0  0
  5 49  1  0  0  0
  6 50  1  0  0  0
  6 51  1  0  0  0
  7 52  1  0  0  0
  7 53  1  0  0  0
  8 54  1  0  0  0
  8 55  1  0  0  0
  9 56  1  0  0  0
  9 57  1  0  0  0
 10 58  1  0  0  0
 10 59  1  0  0  0
 11 60  1  0  0  0
 12 61  1  0  0  0
 12 62  1  0  0  0
 13 63  1  0  0  0
 14 64  1  0  0  0
 15 65  1  0  0  0
 15 66  1  0  0  0
 15 67  1  0  0  0
 16 68  1  0  0  0
 16 69  1  0  0  0
 16 70  1  0  0  0
 18 71  1  0  0  0
 19 72  1  0  0  0
 19 73  1  0  0  0
 20 74  1  0  0  0
 20 75  1  0  0  0
 23 76  1  0  0  0
 25 77  1  0  0  0
 25 78  1  0  0  0
 26 79  1  0  0  0
 26 80  1  0  0  0
 27 81  1  0  0  0
 27 82  1  0  0  0
 29 83  1  0  0  0
 30 84  1  0  0  0
 31 85  1  0  0  0
 31 86  1  0  0  0
 32 87  1  0  0  0
 33 88  1  0  0  0
 33 89  1  0  0  0
 34 90  1  0  0  0
 35 91  1  0  0  0
 35 92  1  0  0  0
 36 93  1  0  0  0
 38 94  1  0  0  0
M  END
$$$$
