1a94_ligand
  -I-interpret- 

128128  0  0  0  0  0  0  0  0999 V2000
   50.8690   20.6100   27.1570 N   0  3  0  0  0
   51.6100   19.8510   28.2070 C   0  0  0  0  0
   53.0860   20.2070   28.1870 C   0  0  0  0  0
   53.6660   20.4070   27.1310 O   0  0  0  0  0
   51.4600   18.3210   28.0200 C   0  0  0  0  0
   50.0880   17.7100   28.3800 C   0  0  0  0  0
   49.5980   18.0580   29.8260 C   0  0  0  0  0
   48.3250   17.4210   30.1800 N   0  0  0  0  0
   48.1320   16.1030   30.2180 C   0  0  0  0  0
   49.1170   15.2680   29.9350 N   0  0  0  0  0
   46.9390   15.6140   30.5030 N   0  0  0  0  0
   53.6690   20.2890   29.3720 N   0  0  0  0  0
   55.0580   20.6150   29.5840 C   0  0  0  0  0
   55.5940   19.4090   30.3930 C   0  0  0  0  0
   55.3680   19.2930   31.6080 O   0  0  0  0  0
   55.1690   21.9200   30.3950 C   0  0  0  0  0
   56.6010   22.4200   30.3940 C   0  0  0  0  0
   54.2290   22.9820   29.8400 C   0  0  0  0  0
   56.3130   18.5180   29.7170 N   0  0  0  0  0
   56.7930   17.3100   30.3630 C   0  0  0  0  0
   58.1850   17.2950   30.9450 C   0  0  0  0  0
   58.8360   16.2510   30.9810 O   0  0  0  0  0
   56.5500   16.1270   29.4520 C   0  0  0  0  0
   55.0840   16.1660   29.0310 C   0  0  0  0  0
   54.7950   15.3140   27.8110 C   0  0  0  0  0
   54.2320   15.7850   30.2140 C   0  0  0  0  0
   58.6570   18.4620   31.3750 N   0  0  0  0  0
   59.9500   18.5840   32.0340 C   0  0  0  0  0
   59.9260   17.5780   33.2260 C   0  0  0  0  0
   58.8900   17.3740   33.8940 O   0  0  0  0  0
   60.1200   20.0380   32.4960 C   0  0  0  0  0
   61.0300   20.1980   33.6810 C   0  0  0  0  0
   62.3990   20.0230   33.5480 C   0  0  0  0  0
   60.4980   20.4190   34.9480 C   0  0  0  0  0
   63.2270   20.0520   34.6550 C   0  0  0  0  0
   61.3080   20.4500   36.0610 C   0  0  0  0  0
   62.6720   20.2620   35.9190 C   0  0  0  0  0
   61.0460   16.9280   33.4910 N   0  0  0  0  0
   61.1040   15.9430   34.5730 C   0  0  0  0  0
   62.5210   15.9540   35.1270 C   0  0  0  0  0
   63.5140   15.7680   34.4230 O   0  0  0  0  0
   60.6670   14.5720   34.0260 C   0  0  0  0  0
   60.8330   13.3810   34.9590 C   0  0  0  0  0
   62.2940   12.9710   35.1210 C   0  0  0  0  0
   63.0510   13.2100   34.1510 O   0  0  0  0  0
   62.6960   12.4490   36.2020 O   0  0  0  0  0
   62.6330   16.2310   36.3980 N   0  0  0  0  0
   63.9490   16.2950   36.9880 C   0  0  0  0  0
   64.0660   15.3140   38.1270 C   0  0  0  0  0
   63.1280   15.1480   38.9200 O   0  0  0  0  0
   64.2270   17.7130   37.4750 C   0  0  0  0  0
   65.2230   14.6810   38.2110 N   0  0  0  0  0
   65.5060   13.7020   39.2450 C   0  0  0  0  0
   64.7380   13.8600   40.5620 C   0  0  0  0  0
   64.9380   14.8420   41.3310 O   0  0  0  0  0
   67.0020   13.6810   39.5010 C   0  0  0  0  0
   67.7940   13.0550   38.3560 C   0  0  0  0  0
   67.7570   11.5290   38.4250 C   0  0  0  0  0
   68.9090   10.9520   37.6030 C   0  0  0  0  0
   63.8820   12.9800   40.7800 N   0  0  0  0  0
   50.9909   21.6106   27.3127 H   0  0  0  0  0
   51.2339   20.3608   26.2377 H   0  0  0  0  0
   49.8775   20.3755   27.2056 H   0  0  0  0  0
   51.1760   20.1317   29.1667 H   0  0  0  0  0
   52.1800   17.8634   28.6984 H   0  0  0  0  0
   51.6027   18.1330   26.9559 H   0  0  0  0  0
   50.1913   16.6263   28.3248 H   0  0  0  0  0
   49.3575   18.1202   27.6827 H   0  0  0  0  0
   49.4488   19.1368   29.8712 H   0  0  0  0  0
   50.3520   17.6948   30.5243 H   0  0  0  0  0
   47.5370   18.0257   30.4120 H   0  0  0  0  0
   48.9496   14.2618   29.9389 H   0  0  0  0  0
   50.0444   15.6299   29.7128 H   0  0  0  0  0
   46.1615   16.2457   30.6950 H   0  0  0  0  0
   53.0945   20.1086   30.1953 H   0  0  0  0  0
   55.6152   20.7766   28.6612 H   0  0  0  0  0
   54.8749   21.7125   31.4239 H   0  0  0  0  0
   57.2481   21.6658   30.8418 H   0  0  0  0  0
   56.9176   22.6096   29.3684 H   0  0  0  0  0
   56.6628   23.3426   30.9711 H   0  0  0  0  0
   54.4892   23.1890   28.8019 H   0  0  0  0  0
   53.2022   22.6202   29.8933 H   0  0  0  0  0
   54.3253   23.8942   30.4289 H   0  0  0  0  0
   56.5295   18.6850   28.7343 H   0  0  0  0  0
   56.1985   17.2545   31.2749 H   0  0  0  0  0
   56.7731   15.1945   29.9704 H   0  0  0  0  0
   57.1992   16.1793   28.5779 H   0  0  0  0  0
   54.8366   17.1814   28.7215 H   0  0  0  0  0
   55.3909   15.6707   26.9709 H   0  0  0  0  0
   55.0510   14.2764   28.0251 H   0  0  0  0  0
   53.7360   15.3845   27.5628 H   0  0  0  0  0
   54.4971   14.7801   30.5425 H   0  0  0  0  0
   54.4037   16.4913   31.0263 H   0  0  0  0  0
   53.1810   15.8091   29.9260 H   0  0  0  0  0
   58.0934   19.3011   31.2383 H   0  0  0  0  0
   60.7926   18.3517   31.3827 H   0  0  0  0  0
   59.1358   20.4013   32.7917 H   0  0  0  0  0
   60.5648   20.5911   31.6687 H   0  0  0  0  0
   62.8276   19.8606   32.5590 H   0  0  0  0  0
   59.4244   20.5697   35.0608 H   0  0  0  0  0
   64.3021   19.9123   34.5421 H   0  0  0  0  0
   60.8778   20.6215   37.0477 H   0  0  0  0  0
   63.3161   20.2780   36.7982 H   0  0  0  0  0
   61.8804   17.1149   32.9348 H   0  0  0  0  0
   60.4231   16.1790   35.3908 H   0  0  0  0  0
   61.3077   14.3728   33.1670 H   0  0  0  0  0
   59.5980   14.6534   33.8295 H   0  0  0  0  0
   60.2908   12.5380   34.5308 H   0  0  0  0  0
   60.4506   13.6639   35.9397 H   0  0  0  0  0
   61.9555   12.3555   36.8057 H   0  0  0  0  0
   61.8027   16.3997   36.9659 H   0  0  0  0  0
   64.6881   16.0285   36.2325 H   0  0  0  0  0
   63.5055   17.9784   38.2477 H   0  0  0  0  0
   65.2356   17.7638   37.8851 H   0  0  0  0  0
   64.1379   18.4069   36.6391 H   0  0  0  0  0
   65.9459   14.8885   37.5220 H   0  0  0  0  0
   65.1455   12.7514   38.8520 H   0  0  0  0  0
   67.1778   13.0807   40.3937 H   0  0  0  0  0
   67.3349   14.7132   39.6098 H   0  0  0  0  0
   68.8313   13.3809   38.4326 H   0  0  0  0  0
   67.3486   13.3707   37.4126 H   0  0  0  0  0
   66.8094   11.1706   38.0229 H   0  0  0  0  0
   67.8566   11.2103   39.4626 H   0  0  0  0  0
   68.8091   11.2713   36.5656 H   0  0  0  0  0
   69.8563   11.3110   38.0054 H   0  0  0  0  0
   68.8804    9.8636   37.6538 H   0  0  0  0  0
   63.2991   13.0313   41.6155 H   0  0  0  0  0
   63.7646   12.2088   40.1229 H   0  0  0  0  0
  3  2  1  0  0  0
  2  5  1  0  0  0
  2  1  1  0  0  0
  5  6  1  0  0  0
  6  7  1  0  0  0
  7  8  1  0  0  0
  8  9  1  0  0  0
  9 10  1  0  0  0
  9 11  2  0  0  0
  3  4  2  0  0  0
 14 13  1  0  0  0
 13 16  1  0  0  0
 13 12  1  0  0  0
 16 17  1  0  0  0
 16 18  1  0  0  0
 14 15  2  0  0  0
 21 20  1  0  0  0
 20 23  1  0  0  0
 20 19  1  0  0  0
 23 24  1  0  0  0
 24 26  1  0  0  0
 24 25  1  0  0  0
 21 22  2  0  0  0
 29 28  1  0  0  0
 28 31  1  0  0  0
 28 27  1  0  0  0
 31 32  1  0  0  0
 32 34  4  0  0  0
 32 33  4  0  0  0
 33 35  4  0  0  0
 35 37  4  0  0  0
 36 37  4  0  0  0
 34 36  4  0  0  0
 29 30  2  0  0  0
 40 39  1  0  0  0
 39 42  1  0  0  0
 39 38  1  0  0  0
 42 43  1  0  0  0
 43 44  1  0  0  0
 44 45  2  0  0  0
 44 46  1  0  0  0
 40 41  2  0  0  0
 49 48  1  0  0  0
 48 51  1  0  0  0
 48 47  1  0  0  0
 49 50  2  0  0  0
 52 53  1  0  0  0
 53 56  1  0  0  0
 53 54  1  0  0  0
 54 55  2  0  0  0
 56 57  1  0  0  0
 57 58  1  0  0  0
 58 59  1  0  0  0
 12  3  1  0  0  0
 19 14  1  0  0  0
 27 21  1  0  0  0
 38 29  1  0  0  0
 47 40  1  0  0  0
 49 52  1  0  0  0
 54 60  1  0  0  0
  1 61  1  0  0  0
  1 62  1  0  0  0
  1 63  1  0  0  0
  2 64  1  0  0  0
  5 65  1  0  0  0
  5 66  1  0  0  0
  6 67  1  0  0  0
  6 68  1  0  0  0
  7 69  1  0  0  0
  7 70  1  0  0  0
  8 71  1  0  0  0
 10 72  1  0  0  0
 10 73  1  0  0  0
 11 74  1  0  0  0
 12 75  1  0  0  0
 13 76  1  0  0  0
 16 77  1  0  0  0
 17 78  1  0  0  0
 17 79  1  0  0  0
 17 80  1  0  0  0
 18 81  1  0  0  0
 18 82  1  0  0  0
 18 83  1  0  0  0
 19 84  1  0  0  0
 20 85  1  0  0  0
 23 86  1  0  0  0
 23 87  1  0  0  0
 24 88  1  0  0  0
 25 89  1  0  0  0
 25 90  1  0  0  0
 25 91  1  0  0  0
 26 92  1  0  0  0
 26 93  1  0  0  0
 26 94  1  0  0  0
 27 95  1  0  0  0
 28 96  1  0  0  0
 31 97  1  0  0  0
 31 98  1  0  0  0
 33 99  1  0  0  0
 34100  1  0  0  0
 35101  1  0  0  0
 36102  1  0  0  0
 37103  1  0  0  0
 38104  1  0  0  0
 39105  1  0  0  0
 42106  1  0  0  0
 42107  1  0  0  0
 43108  1  0  0  0
 43109  1  0  0  0
 46110  1  0  0  0
 47111  1  0  0  0
 48112  1  0  0  0
 51113  1  0  0  0
 51114  1  0  0  0
 51115  1  0  0  0
 52116  1  0  0  0
 53117  1  0  0  0
 56118  1  0  0  0
 56119  1  0  0  0
 57120  1  0  0  0
 57121  1  0  0  0
 58122  1  0  0  0
 58123  1  0  0  0
 59124  1  0  0  0
 59125  1  0  0  0
 59126  1  0  0  0
 60127  1  0  0  0
 60128  1  0  0  0
M  END
$$$$
