1a30_ligand
  -I-interpret- 

 52 51  0  0  0  0  0  0  0  0999 V2000
    4.8410   27.5760    5.3100 N   0  3  0  0  0
    5.7330   26.3940    5.1650 C   0  0  0  0  0
    7.1740   26.7720    5.5040 C   0  0  0  0  0
    7.6240   27.8870    5.2180 O   0  0  0  0  0
    5.6380   25.8180    3.7500 C   0  0  0  0  0
    5.8270   26.8460    2.6520 C   0  0  0  0  0
    5.6250   26.2750    1.2620 C   0  0  0  0  0
    4.6630   25.4970    1.0650 O   0  0  0  0  0
    6.4250   26.6200    0.3630 O   0  0  0  0  0
    7.8730   25.8560    6.1630 N   0  0  0  0  0
    9.2580   26.0720    6.5600 C   0  0  0  0  0
   10.1010   24.9180    6.0470 C   0  0  0  0  0
   10.1820   23.8640    6.6820 O   0  0  0  0  0
    9.3460   26.1960    8.0790 C   0  0  0  0  0
    8.6490   27.4410    8.5880 C   0  0  0  0  0
    9.2700   28.5180    8.5210 O   0  0  0  0  0
    7.4740   27.3570    9.0120 O   0  0  0  0  0
   10.6860   25.1150    4.8690 N   0  0  0  0  0
   11.4980   24.0930    4.2260 C   0  0  0  0  0
   12.9840   24.3990    4.2680 C   0  0  0  0  0
   13.7840   23.4420    4.1920 O   0  0  0  0  0
   11.0380   23.9220    2.7850 C   0  0  0  0  0
    9.5830   23.4660    2.7700 C   0  0  0  0  0
    8.8190   24.1970    1.7080 C   0  0  0  0  0
    9.5210   21.9550    2.6020 C   0  0  0  0  0
   13.3340   25.5920    4.3780 O   0  0  0  0  0
    4.9185   27.9447    6.2579 H   0  0  0  0  0
    5.1186   28.2941    4.6409 H   0  0  0  0  0
    3.8766   27.2967    5.1303 H   0  0  0  0  0
    5.4073   25.6243    5.8648 H   0  0  0  0  0
    4.6363   25.4036    3.6361 H   0  0  0  0  0
    6.4362   25.0830    3.6458 H   0  0  0  0  0
    6.8517   27.2125    2.7140 H   0  0  0  0  0
    5.0834   27.6292    2.7998 H   0  0  0  0  0
    4.1825   25.3697    1.8863 H   0  0  0  0  0
    7.4251   24.9706    6.3995 H   0  0  0  0  0
    9.6366   26.9988    6.1289 H   0  0  0  0  0
   10.3985   26.2574    8.3556 H   0  0  0  0  0
    8.8578   25.3273    8.5208 H   0  0  0  0  0
    7.1878   26.4412    8.9791 H   0  0  0  0  0
   10.5613   26.0125    4.4006 H   0  0  0  0  0
   11.3590   23.1670    4.7840 H   0  0  0  0  0
   13.2926   22.6211    4.1135 H   0  0  0  0  0
   11.6591   23.1753    2.2903 H   0  0  0  0  0
   11.1276   24.8723    2.2586 H   0  0  0  0  0
    9.1086   23.7084    3.7210 H   0  0  0  0  0
    8.8546   25.2678    1.9085 H   0  0  0  0  0
    9.2662   23.9932    0.7351 H   0  0  0  0  0
    7.7825   23.8598    1.7107 H   0  0  0  0  0
    9.9977   21.6753    1.6625 H   0  0  0  0  0
   10.0417   21.4768    3.4316 H   0  0  0  0  0
    8.4793   21.6343    2.5919 H   0  0  0  0  0
  3  2  1  0  0  0
  2  5  1  0  0  0
  2  1  1  0  0  0
  5  6  1  0  0  0
  6  7  1  0  0  0
  7  8  1  0  0  0
  7  9  2  0  0  0
  3  4  2  0  0  0
 12 11  1  0  0  0
 11 14  1  0  0  0
 11 10  1  0  0  0
 14 15  1  0  0  0
 15 16  2  0  0  0
 15 17  1  0  0  0
 12 13  2  0  0  0
 19 20  1  0  0  0
 19 22  1  0  0  0
 18 19  1  0  0  0
 22 23  1  0  0  0
 23 25  1  0  0  0
 23 24  1  0  0  0
 20 26  2  0  0  0
 20 21  1  0  0  0
 10  3  1  0  0  0
 12 18  1  0  0  0
  1 27  1  0  0  0
  1 28  1  0  0  0
  1 29  1  0  0  0
  2 30  1  0  0  0
  5 31  1  0  0  0
  5 32  1  0  0  0
  6 33  1  0  0  0
  6 34  1  0  0  0
  8 35  1  0  0  0
 10 36  1  0  0  0
 11 37  1  0  0  0
 14 38  1  0  0  0
 14 39  1  0  0  0
 17 40  1  0  0  0
 18 41  1  0  0  0
 19 42  1  0  0  0
 21 43  1  0  0  0
 22 44  1  0  0  0
 22 45  1  0  0  0
 23 46  1  0  0  0
 24 47  1  0  0  0
 24 48  1  0  0  0
 24 49  1  0  0  0
 25 50  1  0  0  0
 25 51  1  0  0  0
 25 52  1  0  0  0
M  END
$$$$
