1add_ligand
  -I-interpret- 

 33 35  0  0  0  0  0  0  0  0999 V2000
    8.6220   20.5190   35.3750 O   0  0  0  0  0
    9.2760   20.0150   36.5430 C   0  0  0  0  0
    8.3930   19.0390   37.3130 C   0  0  0  0  0
    7.2280   19.7130   37.8090 O   0  0  0  0  0
    7.8630   17.8880   36.4540 C   0  0  0  0  0
    8.7560   16.7710   36.3720 O   0  0  0  0  0
    6.5540   17.5230   37.1310 C   0  0  0  0  0
    6.9290   16.6110   38.1510 O   0  0  0  0  0
    6.1420   18.7850   37.8890 C   0  0  0  0  0
    4.9200   19.2740   37.3940 N   0  0  0  0  0
    4.5430   19.3890   36.1080 C   0  0  0  0  0
    3.2800   19.8290   36.0060 N   0  0  0  0  0
    2.8340   19.9040   37.2880 C   0  0  0  0  0
    1.6200   20.2460   37.8160 C   0  0  0  0  0
    0.5680   20.5230   37.0410 N   0  0  0  0  0
    1.5020   20.2950   39.1870 C   0  0  0  0  0
    2.5860   20.0040   40.0050 C   0  0  0  0  0
    3.7490   19.6750   39.4650 N   0  0  0  0  0
    3.8570   19.6260   38.1290 C   0  0  0  0  0
    9.2079   21.1277   34.9191 H   0  0  0  0  0
    9.5052   20.8569   37.1963 H   0  0  0  0  0
   10.1764   19.4867   36.2293 H   0  0  0  0  0
    9.0300   18.6453   38.1050 H   0  0  0  0  0
    7.7450   18.1826   35.4112 H   0  0  0  0  0
    9.5684   17.0434   35.9391 H   0  0  0  0  0
    5.7925   17.1470   36.4478 H   0  0  0  0  0
    7.2044   15.7823   37.7523 H   0  0  0  0  0
    5.9557   18.5855   38.9443 H   0  0  0  0  0
    5.1825   19.1545   35.2570 H   0  0  0  0  0
    0.6577   20.4824   36.0258 H   0  0  0  0  0
   -0.3251   20.7751   37.4644 H   0  0  0  0  0
    0.5462   20.5655   39.6358 H   0  0  0  0  0
    2.4794   20.0464   41.0889 H   0  0  0  0  0
  2  1  1  0  0  0
  2  3  1  0  0  0
  3  4  1  0  0  0
  3  5  1  0  0  0
  4  9  1  0  0  0
  5  6  1  0  0  0
  5  7  1  0  0  0
  7  8  1  0  0  0
  9  7  1  0  0  0
  9 10  1  0  0  0
 10 11  4  0  0  0
 10 19  4  0  0  0
 11 12  4  0  0  0
 12 13  4  0  0  0
 13 14  4  0  0  0
 13 19  4  0  0  0
 14 15  1  0  0  0
 14 16  4  0  0  0
 16 17  4  0  0  0
 17 18  4  0  0  0
 18 19  4  0  0  0
  1 20  1  0  0  0
  2 21  1  0  0  0
  2 22  1  0  0  0
  3 23  1  0  0  0
  5 24  1  0  0  0
  6 25  1  0  0  0
  7 26  1  0  0  0
  8 27  1  0  0  0
  9 28  1  0  0  0
 11 29  1  0  0  0
 15 30  1  0  0  0
 15 31  1  0  0  0
 16 32  1  0  0  0
 17 33  1  0  0  0
M  END
$$$$
