1a69_ligand
  -I-interpret- 

 30 32  0  0  0  0  0  0  0  0999 V2000
  -18.6290   72.4960   64.7810 N   0  0  0  0  0
  -17.6590   72.8430   65.6920 C   0  0  0  0  0
  -17.4340   72.1880   66.8280 N   0  0  0  0  0
  -18.2650   71.1350   66.9710 C   0  0  0  0  0
  -19.2640   70.7080   66.1180 C   0  0  0  0  0
  -19.4960   71.4120   64.9200 C   0  0  0  0  0
  -20.3350   71.1770   64.0460 O   0  0  0  0  0
  -19.9000   69.5840   66.6230 N   0  0  0  0  0
  -19.2890   69.3560   67.7600 N   0  0  0  0  0
  -18.2820   70.2630   68.0340 C   0  0  0  0  0
  -17.5510   69.7970   69.2390 C   0  0  0  0  0
  -16.4120   70.7300   69.6340 C   0  0  0  0  0
  -15.2040   69.9950   69.6560 O   0  0  0  0  0
  -16.8460   71.3300   70.9950 C   0  0  0  0  0
  -16.1160   70.8000   72.1220 O   0  0  0  0  0
  -18.3190   70.9540   71.1130 C   0  0  0  0  0
  -18.4590   69.7460   70.3290 O   0  0  0  0  0
  -19.2870   72.0220   70.6090 C   0  0  0  0  0
  -20.6560   71.5800   70.5560 O   0  0  0  0  0
  -18.7211   73.0721   63.9443 H   0  0  0  0  0
  -17.0355   73.7089   65.4694 H   0  0  0  0  0
  -17.1286   68.8203   69.0028 H   0  0  0  0  0
  -16.2221   71.5467   68.9376 H   0  0  0  0  0
  -14.4815   70.5764   69.9042 H   0  0  0  0  0
  -16.6529   72.4025   71.0168 H   0  0  0  0  0
  -16.4327   71.2118   72.9293 H   0  0  0  0  0
  -18.5796   70.8309   72.1642 H   0  0  0  0  0
  -18.9877   72.2814   69.5935 H   0  0  0  0  0
  -19.2407   72.8597   71.3049 H   0  0  0  0  0
  -21.2095   72.2946   70.2327 H   0  0  0  0  0
  1  2  1  0  0  0
  1  6  1  0  0  0
  2  3  2  0  0  0
  3  4  1  0  0  0
  4  5  4  0  0  0
  4 10  4  0  0  0
  5  6  1  0  0  0
  5  8  4  0  0  0
  6  7  2  0  0  0
  8  9  4  0  0  0
  9 10  4  0  0  0
 10 11  1  0  0  0
 11 12  1  0  0  0
 11 17  1  0  0  0
 12 13  1  0  0  0
 12 14  1  0  0  0
 14 15  1  0  0  0
 14 16  1  0  0  0
 16 17  1  0  0  0
 16 18  1  0  0  0
 18 19  1  0  0  0
  1 20  1  0  0  0
  2 21  1  0  0  0
 11 22  1  0  0  0
 12 23  1  0  0  0
 13 24  1  0  0  0
 14 25  1  0  0  0
 15 26  1  0  0  0
 16 27  1  0  0  0
 18 28  1  0  0  0
 18 29  1  0  0  0
 19 30  1  0  0  0
M  END
$$$$
