1aaq_ligand
  -I-interpret- 

 89 89  0  0  0  0  0  0  0  0999 V2000
   -4.8320   18.1790   -4.8280 C   0  0  0  0  0
   -5.8830   17.4740   -5.6800 C   0  0  0  0  0
   -5.7410   17.9380   -7.0390 N   0  3  0  0  0
   -7.2840   17.7850   -5.1510 C   0  0  0  0  0
   -7.8780   18.7950   -5.5030 O   0  0  0  0  0
   -7.7640   16.9320   -4.2320 N   0  0  0  0  0
   -9.0680   17.1150   -3.5730 C   0  0  0  0  0
  -10.0880   16.1150   -4.1410 C   0  0  0  0  0
   -8.8180   16.8680   -2.0810 C   0  0  0  0  0
   -8.4350   15.7610   -1.7290 O   0  0  0  0  0
   -8.9820   17.9020   -1.2370 N   0  0  0  0  0
   -8.6630   17.8220    0.2180 C   0  0  0  0  0
   -7.6860   18.9390    0.6230 C   0  0  0  0  0
   -6.3150   18.8260   -0.0240 C   0  0  0  0  0
   -5.9580   19.6050   -1.1370 C   0  0  0  0  0
   -5.3680   17.9530    0.5460 C   0  0  0  0  0
   -4.6690   19.4940   -1.6820 C   0  0  0  0  0
   -4.0860   17.8370   -0.0040 C   0  0  0  0  0
   -3.7290   18.6210   -1.1100 C   0  0  0  0  0
   -9.9260   17.8710    1.1670 C   0  0  0  0  0
  -10.8640   19.0150    1.0930 O   0  0  0  0  0
  -10.7740   16.6120    0.9150 C   0  0  0  0  0
  -11.8840   16.4140    1.9720 C   0  0  0  0  0
  -11.3700   15.7810    3.2710 C   0  0  0  0  0
  -10.7800   14.7100    3.1960 O   0  0  0  0  0
  -11.6290   16.3670    4.4580 N   0  0  0  0  0
  -11.2800   15.6530    5.7110 C   0  0  0  0  0
  -10.4320   16.5190    6.6690 C   0  0  0  0  0
   -9.9680   15.7260    7.9080 C   0  0  0  0  0
   -9.1670   17.0370    5.9540 C   0  0  0  0  0
  -12.5960   15.1310    6.3280 C   0  0  0  0  0
  -13.5770   15.8440    6.4930 O   0  0  0  0  0
  -12.5390   13.8420    6.6570 N   0  0  0  0  0
  -13.5190   12.9170    7.2560 C   0  0  0  0  0
  -14.1680   12.0520    6.1210 C   0  0  0  0  0
  -15.2790   11.0900    6.6380 C   0  0  0  0  0
  -14.8520   12.9270    5.0450 C   0  0  0  0  0
  -12.8290   12.0770    8.4190 C   0  0  0  0  0
  -13.0000   12.6640    9.7100 O   0  0  0  0  0
  -11.5110   11.4360    8.2750 O   0  0  0  0  0
  -13.0560   11.6970   10.7740 C   0  0  0  0  0
   -4.9982   19.2556   -4.8655 H   0  0  0  0  0
   -4.9105   17.8337   -3.7971 H   0  0  0  0  0
   -3.8391   17.9497   -5.2148 H   0  0  0  0  0
   -5.7422   16.3939   -5.6390 H   0  0  0  0  0
   -4.8021   17.7223   -7.3743 H   0  0  0  0  0
   -6.4297   17.4721   -7.6298 H   0  0  0  0  0
   -5.8911   18.9464   -7.0701 H   0  0  0  0  0
   -7.2000   16.1207   -3.9789 H   0  0  0  0  0
   -9.4779   18.1112   -3.7394 H   0  0  0  0  0
   -9.7092   15.1007   -4.0153 H   0  0  0  0  0
  -11.0331   16.2199   -3.6082 H   0  0  0  0  0
  -10.2424   16.3179   -5.2008 H   0  0  0  0  0
   -9.3410   18.7814   -1.6088 H   0  0  0  0  0
   -8.2062   16.8416    0.3531 H   0  0  0  0  0
   -7.5417   18.8672    1.7010 H   0  0  0  0  0
   -8.1210   19.8834    0.2959 H   0  0  0  0  0
   -6.6797   20.2937   -1.5763 H   0  0  0  0  0
   -5.6356   17.3629    1.4225 H   0  0  0  0  0
   -4.3961   20.0886   -2.5539 H   0  0  0  0  0
   -3.3676   17.1393    0.4263 H   0  0  0  0  0
   -2.7235   18.5532   -1.5254 H   0  0  0  0  0
   -9.4614   17.9637    2.1487 H   0  0  0  0  0
  -11.5704   18.8900    1.7310 H   0  0  0  0  0
  -10.1106   15.7484    0.9627 H   0  0  0  0  0
  -11.2552   16.7234   -0.0567 H   0  0  0  0  0
  -12.6298   15.7417    1.5479 H   0  0  0  0  0
  -12.2864   17.3966    2.2184 H   0  0  0  0  0
  -12.0600   17.2908    4.4938 H   0  0  0  0  0
  -10.6302   14.8038    5.4996 H   0  0  0  0  0
  -11.0711   17.3446    6.9822 H   0  0  0  0  0
  -10.8396   15.3664    8.4550 H   0  0  0  0  0
   -9.3623   14.8778    7.5890 H   0  0  0  0  0
   -9.3755   16.3754    8.5524 H   0  0  0  0  0
   -8.5684   16.1902    5.6183 H   0  0  0  0  0
   -9.4585   17.6409    5.0947 H   0  0  0  0  0
   -8.5834   17.6446    6.6456 H   0  0  0  0  0
  -11.6384   13.4081    6.4544 H   0  0  0  0  0
  -14.3363   13.4574    7.7335 H   0  0  0  0  0
  -13.3297   11.4866    5.7140 H   0  0  0  0  0
  -14.8525   10.4048    7.3705 H   0  0  0  0  0
  -16.0744   11.6723    7.1033 H   0  0  0  0  0
  -15.6848   10.5223    5.8007 H   0  0  0  0  0
  -15.6366   13.5244    5.5093 H   0  0  0  0  0
  -14.1124   13.5862    4.5906 H   0  0  0  0  0
  -15.2874   12.2849    4.2793 H   0  0  0  0  0
  -13.8956   11.0224   10.6064 H   0  0  0  0  0
  -12.1278   11.1259   10.7935 H   0  0  0  0  0
  -13.1869   12.2126   11.7254 H   0  0  0  0  0
  1  2  1  0  0  0
  2  3  1  0  0  0
  2  4  1  0  0  0
  4  5  2  0  0  0
  4  6  1  0  0  0
  6  7  1  0  0  0
  7  8  1  0  0  0
  7  9  1  0  0  0
  9 10  2  0  0  0
  9 11  1  0  0  0
 11 12  1  0  0  0
 12 13  1  0  0  0
 12 20  1  0  0  0
 13 14  1  0  0  0
 14 15  4  0  0  0
 14 16  4  0  0  0
 15 17  4  0  0  0
 16 18  4  0  0  0
 17 19  4  0  0  0
 18 19  4  0  0  0
 20 21  1  0  0  0
 20 22  1  0  0  0
 22 23  1  0  0  0
 23 24  1  0  0  0
 24 25  2  0  0  0
 24 26  1  0  0  0
 26 27  1  0  0  0
 27 28  1  0  0  0
 27 31  1  0  0  0
 28 29  1  0  0  0
 28 30  1  0  0  0
 31 32  2  0  0  0
 31 33  1  0  0  0
 33 34  1  0  0  0
 34 35  1  0  0  0
 34 38  1  0  0  0
 35 36  1  0  0  0
 35 37  1  0  0  0
 38 39  1  0  0  0
 38 40  2  0  0  0
 39 41  1  0  0  0
  1 42  1  0  0  0
  1 43  1  0  0  0
  1 44  1  0  0  0
  2 45  1  0  0  0
  3 46  1  0  0  0
  3 47  1  0  0  0
  3 48  1  0  0  0
  6 49  1  0  0  0
  7 50  1  0  0  0
  8 51  1  0  0  0
  8 52  1  0  0  0
  8 53  1  0  0  0
 11 54  1  0  0  0
 12 55  1  0  0  0
 13 56  1  0  0  0
 13 57  1  0  0  0
 15 58  1  0  0  0
 16 59  1  0  0  0
 17 60  1  0  0  0
 18 61  1  0  0  0
 19 62  1  0  0  0
 20 63  1  0  0  0
 21 64  1  0  0  0
 22 65  1  0  0  0
 22 66  1  0  0  0
 23 67  1  0  0  0
 23 68  1  0  0  0
 26 69  1  0  0  0
 27 70  1  0  0  0
 28 71  1  0  0  0
 29 72  1  0  0  0
 29 73  1  0  0  0
 29 74  1  0  0  0
 30 75  1  0  0  0
 30 76  1  0  0  0
 30 77  1  0  0  0
 33 78  1  0  0  0
 34 79  1  0  0  0
 35 80  1  0  0  0
 36 81  1  0  0  0
 36 82  1  0  0  0
 36 83  1  0  0  0
 37 84  1  0  0  0
 37 85  1  0  0  0
 37 86  1  0  0  0
 41 87  1  0  0  0
 41 88  1  0  0  0
 41 89  1  0  0  0
M  END
$$$$
