1ajp_ligand
  -I-interpret- 

 20 20  0  0  0  0  0  0  0  0999 V2000
   13.5720   37.5200   36.1010 C   0  0  0  0  0
   13.0180   36.1080   35.8570 C   0  0  0  0  0
   11.9820   36.0200   34.7630 C   0  0  0  0  0
   12.0720   36.8510   33.6510 C   0  0  0  0  0
   11.1100   36.7580   32.6730 C   0  0  0  0  0
   11.0650   37.5080   31.5210 O   0  0  0  0  0
   10.0380   35.8730   32.7310 C   0  0  0  0  0
    9.9510   35.0620   33.8310 C   0  0  0  0  0
   10.9200   35.1270   34.8110 C   0  0  0  0  0
   10.7660   34.4250   35.6340 O   0  0  0  0  0
   14.4340   37.7030   36.9520 O   0  0  0  0  0
   13.1420   38.5030   35.4930 O   0  0  0  0  0
   12.5329   35.7926   36.7807 H   0  0  0  0  0
   13.8583   35.4852   35.5503 H   0  0  0  0  0
   12.8912   37.5638   33.5566 H   0  0  0  0  0
   10.2969   37.2534   31.0045 H   0  0  0  0  0
    9.2971   35.8270   31.9329 H   0  0  0  0  0
    9.1179   34.3665   33.9321 H   0  0  0  0  0
    9.9770   33.9046   35.4658 H   0  0  0  0  0
   12.4771   38.2210   34.8606 H   0  0  0  0  0
  1 12  1  0  0  0
  1 11  2  0  0  0
  1  2  1  0  0  0
  2  3  1  0  0  0
  3  9  4  0  0  0
  3  4  4  0  0  0
  4  5  4  0  0  0
  5  7  4  0  0  0
  5  6  1  0  0  0
  7  8  4  0  0  0
  8  9  4  0  0  0
  9 10  1  0  0  0
  2 13  1  0  0  0
  2 14  1  0  0  0
  4 15  1  0  0  0
  6 16  1  0  0  0
  7 17  1  0  0  0
  8 18  1  0  0  0
 10 19  1  0  0  0
 12 20  1  0  0  0
M  END
$$$$
