1ado_ligand
  -I-interpret- 

 17 16  0  0  0  0  0  0  0  0999 V2000
   23.0580   27.2320   23.7810 P   0  0  0  0  0
   23.2740   25.7610   24.4310 O   0  0  0  0  0
   21.6730   26.9720   23.0650 O   0  0  0  0  0
   24.0790   27.5410   22.6520 O   0  0  0  0  0
   22.8890   28.5100   24.7710 O   0  0  0  0  0
   23.4170   29.8220   24.4360 C   0  0  0  0  0
   24.5750   30.2800   25.3010 C   0  0  0  0  0
   24.6250   29.9610   26.4860 O   0  0  0  0  0
   25.6620   31.1460   24.6940 C   0  0  0  0  0
   25.8750   30.7770   23.3430 O   0  0  0  0  0
   22.6217   25.6182   25.1207 H   0  0  0  0  0
   21.0046   26.7753   23.7254 H   0  0  0  0  0
   22.6078   30.5368   24.5855 H   0  0  0  0  0
   23.7897   29.7619   23.4135 H   0  0  0  0  0
   26.5866   31.0074   25.2544 H   0  0  0  0  0
   25.3548   32.1909   24.7369 H   0  0  0  0  0
   26.5639   31.3294   22.9664 H   0  0  0  0  0
  1  2  1  0  0  0
  1  3  1  0  0  0
  1  4  2  0  0  0
  1  5  1  0  0  0
  5  6  1  0  0  0
  6  7  1  0  0  0
  7  8  2  0  0  0
  7  9  1  0  0  0
  9 10  1  0  0  0
  2 11  1  0  0  0
  3 12  1  0  0  0
  6 13  1  0  0  0
  6 14  1  0  0  0
  9 15  1  0  0  0
  9 16  1  0  0  0
 10 17  1  0  0  0
M  END
$$$$
